%
% CircularCylinder-1 (M_inf = 20, R = 1), SU2 shock-fitting mode via
% UnDiFi-2D's outer loop (source/main.f's SU2 branch). Same freestream
% and boundary-marker setup as tests/CircularCylinder/su2_capturing/
% circularcylinder.cfg (the shock-capturing smoke test), but ITER=1 +
% RESTART_SOL=YES so each SU2_CFD invocation performs exactly one
% implicit pseudo-time step -- the SU2 analogue of EulFS's -itmax 1 --
% picking up from the restart state triangle2su2 just wrote and handing
% the result back to su22triangle. The moving fitted shock front (not
% SU2 itself) is what resolves the discontinuity in this mode.
%
% MESH_FILENAME/SOLUTION_FILENAME/RESTART_FILENAME use the fixed
% "su2case" basename that source/main.f's SU2 branch passes to
% triangle2su2/su22triangle every outer iteration (see main.f comment
% above the SU2 branch) -- not fname, which changes.
%
SOLVER= EULER
MATH_PROBLEM= DIRECT
RESTART_SOL= YES
%
MACH_NUMBER= 20.0
AOA= 180.0
FREESTREAM_PRESSURE= 0.0017857142857142857
FREESTREAM_TEMPERATURE= 0.0017857142857142857
FLUID_MODEL= IDEAL_GAS
GAMMA_VALUE= 1.4
GAS_CONSTANT= 1.0
REF_DIMENSIONALIZATION= DIMENSIONAL
%
MARKER_EULER= ( bc3 )
% EulFS's own .petscrc ("-colors -1,5,5,4,5,...") assigns bc1/bc2/bc4
% BC_TYPE_FAR_FIELD (=5, bnd.h) uniformly -- a single characteristic/
% Riemann far-field BC referenced to the freestream, not a fixed
% inlet/outlet split by boundary identity. A rigid supersonic-inlet +
% supersonic-outlet split (the previous setup here) picks the wrong
% treatment wherever the true local flow direction differs from that
% fixed assumption; match EulFS's uniform far-field treatment instead.
MARKER_FAR= ( bc1, bc2, bc4 )
MARKER_PLOTTING= ( bc3 )
MARKER_MONITORING= ( bc3 )
%
% Fitting mode re-triangulates every outer iteration with the fitted
% shock front as an internal double-point seam (colour 10 here, out of
% the colour 5-10 range type.dat reserves for shocks/discontinuities).
% EulFS's own .petscrc assigns this colour BC_TYPE_PERIODIC (bc type
% 0, see tests/CircularCylinder/.petscrc's "-colors" list), pairing
% the coincident upstream/downstream point chains rather than leaving
% them uncoupled -- MARKER_INTERNAL (SU2's true no-op) let the two
% sides drift apart over many outer iterations (see
% ../CircularCylinder/su2_fitting/README.md). wsu2.f now splits colour
% 10 into its two connected components, bc10_1/bc10_2 (one per side);
% pair them with a zero (coincident, not offset) transform.
MARKER_PERIODIC= ( bc10_1, bc10_2, 0.0, 0.0, 0.0, 0.0, 0.0, 0.0, 0.0, 0.0, 0.0 )
%
NUM_METHOD_GRAD= WEIGHTED_LEAST_SQUARES
CFL_NUMBER= 0.002
CFL_ADAPT= NO
%
CONV_NUM_METHOD_FLOW= ROE
MUSCL_FLOW= NO
ENTROPY_FIX_COEFF= 0.1
TIME_DISCRE_FLOW= EULER_IMPLICIT
%
ITER= 1
%
MESH_FILENAME= su2case.su2
MESH_FORMAT= SU2
SOLUTION_FILENAME= su2case_restart
RESTART_FILENAME= su2case_restart
READ_BINARY_RESTART= NO
TABULAR_FORMAT= CSV
OUTPUT_FILES= ( RESTART_ASCII )
SCREEN_OUTPUT= (INNER_ITER, RMS_DENSITY, RMS_ENERGY, LIFT, DRAG)
